LAMMPS (19 Nov 2024 - Development - patch_2Jul2021-14588-g93bfae9507)
######### 3d Lennard-Jones for polymeric system #############
######## simulting polymer brush by "grafting from" approach##
##### study the effect of iniatior density embedded in the #### #### substrate on chain length disbribution and polydispersity###

units		lj
atom_style	atomic
boundary        p p p
########## configure the simulation setup ############
#rho is 0.016 before
variable        rho equal 2/(2*2^(1./6.))^3

variable        dimx equal 16
variable        dimy equal 7
variable        dimz equal 7

#variable        rho2 equal 6./(2*2^(1./6.))^3
variable        rho2 equal 18./(2)^3
# set up initial hard segment crystal structure
lattice	custom 2.25                 basis 0.01 0.51 0.51 basis 0.51 0.51 0.51                 basis 0.01 0.26 0.51                 basis 0.01 0.51 0.26                 basis 0.01 0.76 0.51                 basis 0.01 0.51 0.76                 basis 0.51 0.26 0.51                 basis 0.51 0.51 0.26                 basis 0.51 0.76 0.51                 basis 0.51 0.51 0.76                 basis 0.01 0.26 0.26                 basis 0.01 0.76 0.26                 basis 0.01 0.76 0.76                 basis 0.01 0.26 0.76                 basis 0.51 0.26 0.26                 basis 0.51 0.76 0.26                 basis 0.51 0.76 0.76                 basis 0.51 0.26 0.76
Lattice spacing in x,y,z = 2 2 2
region		box block  0  16  2  7  2  7
# create hard segment atoms with chain in the middle #
region		middle block  6 10 5 6 5 6

create_box	9 box
Created orthogonal box = (0 4 4) to (32 14 14)

create_atoms	9 region box  basis 1 5 basis 2 5
Created 7200 atoms
region		hollow block INF INF 3 8 3 8
delete_atoms	region hollow
Deleted 4608 atoms, new total = 2592
region		hollow2 block 0 11 INF INF INF INF
delete_atoms	region hollow2
Deleted 1782 atoms, new total = 810

create_atoms	9 region middle basis 1 1 basis 2 2 		basis 3 3 		basis 4 4 		basis 5 3 		basis 6 4 		basis 7 3 		basis 8 4 		basis 9 3 		basis 10 4 		basis 11 6 		basis 12 6 		basis 13 6 		basis 14 6 		basis 15 6 		basis 16 6 		basis 17 6 		basis 18 6
Created 72 atoms
# create soft segment
region		middle5 block  0 6 5 6 5 6
create_atoms	9 region middle5 basis 1 7 basis 2 8
Created 108 atoms

region		middle2 block  10 16 5 6 5 6
create_atoms	9 region middle2 basis 1 7 basis 2 8
Created 108 atoms

#mass (soft segment = 1.0 / hard segment = 0.99 (0.11*9) / solvent = 0.16)
variable	mass5 equal 1.0
mass		* 1.0
mass		1 0.2
mass		2 0.2
mass		3 0.1
mass		4 0.1
mass		5 0.35

mass		6 0.1
mass		7 1.0
mass            8 1.0

###### randomly reset some of the bottom substrate atoms to radical atoms ####

group           patch4 type 4
16 atoms in group patch4
group		patch1 type 1
4 atoms in group patch1
group		patch2 type 2
4 atoms in group patch2
group		patch3 type 3
16 atoms in group patch3
group		patch6 type 6
32 atoms in group patch6
group           patch5 type 5
90 atoms in group patch5
group           patch7 type 7
12 atoms in group patch7
group           patch8 type 8
12 atoms in group patch8
#delete_atoms	group patch6
group		patch9 type 9
912 atoms in group patch9
delete_atoms	group patch9
Deleted 912 atoms, new total = 186
#delete_atoms    group patch3
#delete_atoms    group patch4
#delete_atoms    group patch6

#temperature is 0.028 before
variable	t equal 0.2
variable	tf equal 0.2
velocity	all create $t 55
velocity	all create 0.2 55

#c is 2.35 before for chains, 1.9 for very compact
variable	c equal 1.8
variable	s equal $c/2^(1./6.)
variable	s equal 1.8/2^(1./6.)

#variable        n equal $m*1.6

variable	u equal 1.0
variable	v equal $u/2^(1./6.)
variable	v equal 1/2^(1./6.)

variable	p equal 1.0
variable	q equal $p/2^(1./6.)
variable	q equal 1/2^(1./6.)

variable	h equal 1.0
variable	k equal $h/2^(1./6.)
variable	k equal 1/2^(1./6.)

variable	h2 equal 1.0
variable	k2 equal 1/2^(1./6.)

variable	h3 equal sqrt(2.0) # 1.414
variable	k3 equal 1.4142135623731/2^(1./6.)

variable        b equal 0.2
variable	b1 equal 0.14

variable        c3 equal 2.0
variable        s3 equal 2/2^(1./6.)

variable        c5 equal 1.6
variable        s5 equal 1.6/2^(1./6.)

variable        h4 equal 0.5
variable        k4 equal 0.5/2^(1./6.)

variable        h5 equal 0.25
variable        k5 equal 0.25/2^(1./6.)

variable        c4 equal 0.707
variable        s4 equal 0.707/2^(1./6.)

variable        c6 equal 2.5
variable        s6 equal 2.5/2^(1./6.)

variable        c7 equal 2.8
variable        s7 equal 2.8/2^(1./6.)

#pair_style	lj/cut/bump/smooth/linear 2.5
pair_style	lj/cut/bump 2.8 #cutoff 2.8
pair_coeff      * * 0.02 $v 1.0 1 0 $u
pair_coeff      * * 0.02 0.890898718140339 1.0 1 0 $u
pair_coeff      * * 0.02 0.890898718140339 1.0 1 0 1

#backbone
#in hard segment
pair_coeff	1 1 5.0 $s  1.0 1 0 1.8 #1.8 only repulsion
pair_coeff	1 1 5.0 1.60361769265261  1.0 1 0 1.8
pair_coeff	2 2 5.0 $s  1.0 1 0 1.8 #1.8 only repulsion
pair_coeff	2 2 5.0 1.60361769265261  1.0 1 0 1.8
pair_coeff	1 2 5.0 0.890898718140339 1.2 1 1.0 1.8

#connect soft segments in outside and inside hard segments
pair_coeff      2 7 20.0 0.890898718140339 1.2 1 1.0 1.8
pair_coeff      1 8 20.0 0.890898718140339 1.2 1 1.0 1.8
pair_coeff      1 7 20.0 $s  1.0 1 0 1.8 #1.8 only repulsion
pair_coeff      1 7 20.0 1.60361769265261  1.0 1 0 1.8
pair_coeff      2 8 20.0 $s  1.0 1 0 1.8 #1.8 only repulsion
pair_coeff      2 8 20.0 1.60361769265261  1.0 1 0 1.8

#soft segment (distance between soft/soft = 2.2)
pair_coeff      7 7 20.0 $s  1.0 1 0 1.8 #1.8 only repulsion
pair_coeff      7 7 20.0 1.60361769265261  1.0 1 0 1.8
pair_coeff      8 8 20.0 $s  1.0 1 0 1.8 #1.8 only repulsion
pair_coeff      8 8 20.0 1.60361769265261  1.0 1 0 1.8
pair_coeff      7 8 20.0 0.890898718140339 1.2 1 1.0 1.8

#intramolecular interactions in hard segments
pair_coeff	1 3 20.0 0.44544935907017 1.2 1 2.0 1.118
pair_coeff	2 3 20.0 0.44544935907017 1.2 1 2.0 1.118
pair_coeff	1 4 20.0 0.44544935907017 1.2 1 2.0 1.118
pair_coeff	2 4 20.0 0.44544935907017 1.2 1 2.0 1.118
pair_coeff      1*2 6 20.0 0.62986539372522 1.2 1 2.0 1.225

pair_coeff      3 4 20.0 0.62986539372522 1.2 1 2.0 1.225
pair_coeff      3*4 6 20.0 0.44544935907017 1.2 1 2.0 1.118

pair_coeff	3 3 5.0 0.890898718140339 1.2 1 1.0 1.414
pair_coeff	4 4 5.0 0.890898718140339 1.2 1 1.0 1.414

pair_coeff      6 6 5.0 0.890898718140339 1.2 1 1.0 1.414

#intermolecular interactions between soft and hard segments

pair_coeff      3*4 7 0.01 0.44544935907017 1.2 1 0.0 0.5
pair_coeff      3*4 8 0.01 0.44544935907017 1.2 1 0.0 0.5
pair_coeff      6 7 0.01 0.44544935907017 1.2 1 0.0 0.5
pair_coeff      6 8 0.01 0.44544935907017 1.2 1 0.0 0.5

#interaction with solvent particles
variable        c8 equal 2.0
variable        s8 equal 2/2^(1./6.)

variable        c9 equal 2.2
variable        s9 equal 2.2/2^(1./6.)

variable        c10 equal 0.3
variable        s10 equal 0.3/2^(1./6.)

pair_coeff      1*2 5 0.05 1.95997717990875 1.2 1 0.0 2.2

pair_coeff      3*4 5 0.01 0.267269615442102 1.2 1 0.0 0.3
pair_coeff      5 6 0.01 0.267269615442102 1.2 1 0.0 0.3

pair_coeff      5 5 0.05 1.95997717990875 1.2 1 0.0 2.2

pair_coeff      5 7 0.05 1.78179743628068 1.2 1 0.0 2.0
pair_coeff      5 8 0.05 1.78179743628068 1.2 1 0.0 2.0

#velocity	all set NULL 0.0 0.0
#fix		11 all setforce NULL 0.0 0.0

pair_modify	tail no
pair_modify	shift yes
neighbor	1.0 bin
neigh_modify	every 1 delay 0 check yes

timestep	0.001
thermo		100
thermo_style    custom step temp pe ke etotal pxx pyy pzz lx ly lz press vol

dump            1 all custom 100000 lata4olivia_initial id type x y z fx fy fz

############temperature control
fix             1 all nvt temp 0.2 0.2 0.1

############decide the length of the chain and the number of chains
variable        nrepeat equal 16 #chain length
#variable        nrep equal 4  #sample size

###############make one single chain
replicate       16 1 1
Replication is creating a 16x1x1 = 16 times larger system...
  orthogonal box = (0 4 4) to (512 14 14)
  2976 atoms
  replicate CPU = 0.004 seconds
region  end block  0 2 INF INF INF INF units box
delete_atoms    region end
Deleted 2 atoms, new total = 2974

################increase the box
variable        newsized equal ly*16
fix             2 all deform 1 y final 0 160 z final 0 160 units box

run             10000#test!0
Generated 0 of 36 mixed pair_coeff terms from geometric mixing rule
Step          Temp          PotEng         KinEng         TotEng          Pxx            Pyy            Pzz             Lx             Ly             Lz           Press          Volume
0   0.19898075     253.81757      0.29837077     254.11594      193.37004     -0.020769295   -0.021577408    512            10             10             64.442566      51200
Averages over the last 51 of 101 rows, steps 5000 to 10000:
Temp PotEng KinEng TotEng Pxx Pyy Pzz Lx Ly Lz Press Volume
0.200482 -21.3706 0.300622 -21.07 6.76975e-05 7.84392e-05 6.2118e-05 512 122.5 122.5 6.94182e-05 7.9328e+06
Loop time of 3.95774 on 1 procs for 10000 steps with 2974 atoms

############deform to x axis##########################################################
unfix           2
variable        lengthx equal 50*16/4.0
fix             2 all deform 1 x final 0 200 units box
run             10000#test!0
Generated 0 of 36 mixed pair_coeff terms from geometric mixing rule
Step          Temp          PotEng         KinEng         TotEng          Pxx            Pyy            Pzz             Lx             Ly             Lz           Press          Volume
10000   0.21886904    -21.363866      0.32819317    -21.035673      6.6217118e-05  5.4599043e-05  4.7446508e-05  512            160            160            5.6087556e-05  13107200
Averages over the last 51 of 101 rows, steps 15000 to 20000:
Temp PotEng KinEng TotEng Pxx Pyy Pzz Lx Ly Lz Press Volume
0.19992 -21.335 0.299779 -21.0352 0.000115242 5.357e-05 4.51656e-05 278 160 160 7.13258e-05 7.1168e+06
Loop time of 4.86518 on 1 procs for 10000 steps with 2974 atoms

unfix           2
#############make the simulation box cubic############################################
variable        newsize equal (lx*ly*lz)^(1./3.)

fix             2 all deform 1 x final 0 172.354775202551 y final 0 172.354775202551 z final 0 172.354775202551 units box
run             10000#test!0
Generated 0 of 36 mixed pair_coeff terms from geometric mixing rule
Step          Temp          PotEng         KinEng         TotEng          Pxx            Pyy            Pzz             Lx             Ly             Lz           Press          Volume
20000   0.20767983    -21.332472      0.311415      -21.021057      0.00013884007 -1.2544088e-05  4.9209114e-05  200            160            160            5.8501698e-05  5120000
Averages over the last 51 of 101 rows, steps 25000 to 30000:
Temp PotEng KinEng TotEng Pxx Pyy Pzz Lx Ly Lz Press Volume
0.200148 -21.3193 0.300121 -21.0191 0.000117892 6.0771e-05 7.16548e-05 179.266 169.266 169.266 8.34393e-05 5.13424e+06
Loop time of 3.14596 on 1 procs for 10000 steps with 2974 atoms

unfix           2
#############replicate the system
#Note that this system is much more dilute than the desired density of 1 unit per 1000 volume, by a factor of 320!
# Original system is 72 4 4
# Small test sample 4 1 1
#replicate       72 4 4   #replicate into 1152 chains
replicate		8 2 2
Replication is creating a 8x2x2 = 32 times larger system...
  orthogonal box = (0 0 0) to (1378.8382 344.70955 344.70955)
  95168 atoms
  replicate CPU = 0.012 seconds
velocity        all create 0.2 9936

#############high temp relaxation##########################################
unfix           1
fix             1 all nvt temp 0.2 0.2 0.1
run             70000#test!0
Generated 0 of 36 mixed pair_coeff terms from geometric mixing rule
Step          Temp          PotEng         KinEng         TotEng          Pxx            Pyy            Pzz             Lx             Ly             Lz           Press          Volume
30000   0.2           -21.315523      0.29999685    -21.015526     -1.4468397e-05  2.1335504e-05  9.197262e-05   1378.8382      344.70955      344.70955      3.2946576e-05  1.6384e+08
Averages over the last 351 of 701 rows, steps 65000 to 100000:
Temp PotEng KinEng TotEng Pxx Pyy Pzz Lx Ly Lz Press Volume
0.200005 -21.2374 0.300005 -20.9374 4.81808e-05 4.91514e-05 5.13475e-05 1378.84 344.71 344.71 4.95599e-05 1.6384e+08
Loop time of 696.776 on 1 procs for 70000 steps with 95168 atoms

#############returning to original density 1000 per 1unit, the scaling factor is independent of replication ################################
variable        newsizerx equal lx/(320^(1./3.))
variable        newsizery equal ly/(320^(1./3.))
variable        newsizerz equal lz/(320^(1./3.))

fix             2 all deform 1 x final 0 201.58736798318 y final 0 50.396841995795 z final 0 50.396841995795 units box
run             50000#test!0
Generated 0 of 36 mixed pair_coeff terms from geometric mixing rule
Step          Temp          PotEng         KinEng         TotEng          Pxx            Pyy            Pzz             Lx             Ly             Lz           Press          Volume
100000   0.2005733     -21.226537      0.30085679    -20.92568       5.415173e-05   1.1236834e-05  5.1276893e-05  1378.8382      344.70955      344.70955      3.8888486e-05  1.6384e+08
Averages over the last 251 of 501 rows, steps 125000 to 150000:
Temp PotEng KinEng TotEng Pxx Pyy Pzz Lx Ly Lz Press Volume
0.200721 -21.2875 0.301078 -20.9864 0.0121537 0.0121951 0.0121278 495.9 123.975 123.975 0.0121589 1.0328e+07
Loop time of 652.466 on 1 procs for 50000 steps with 95168 atoms

unfix           2

#write_data      s0.data
############cooling#######################################################
variable        ct equal 0.04

unfix           1
fix             1 all nvt temp 0.2 0.04 0.1
run             20000#test!0
Generated 0 of 36 mixed pair_coeff terms from geometric mixing rule
Step          Temp          PotEng         KinEng         TotEng          Pxx            Pyy            Pzz             Lx             Ly             Lz           Press          Volume
150000   0.21516541    -21.23223       0.32274472    -20.909486      0.21813381     0.21246669     0.21493193     201.58737      50.396842      50.396842      0.21517748     512000
Averages over the last 101 of 201 rows, steps 160000 to 170000:
Temp PotEng KinEng TotEng Pxx Pyy Pzz Lx Ly Lz Press Volume
0.0807919 -21.3142 0.121187 -21.193 0.0674192 0.067966 0.0677993 201.587 50.3968 50.3968 0.0677281 512000
Loop time of 279.927 on 1 procs for 20000 steps with 95168 atoms

############maintaining temp########################################
unfix           1
fix             1 all nvt temp 0.04 0.04 0.01
run             30000#test!0
Generated 0 of 36 mixed pair_coeff terms from geometric mixing rule
Step          Temp          PotEng         KinEng         TotEng          Pxx            Pyy            Pzz             Lx             Ly             Lz           Press          Volume
170000   0.041121377   -21.344641      0.061681417   -21.28296       0.034471421    0.040494023    0.041690291    201.58737      50.396842      50.396842      0.038885245    512000
Averages over the last 151 of 301 rows, steps 185000 to 200000:
Temp PotEng KinEng TotEng Pxx Pyy Pzz Lx Ly Lz Press Volume
0.0399932 -21.3398 0.0599892 -21.2799 0.0265949 0.0263669 0.0262516 201.587 50.3968 50.3968 0.0264045 512000
Loop time of 404.436 on 1 procs for 30000 steps with 95168 atoms

unfix           1

write_data      s1.data
System init for write_data ...
Generated 0 of 36 mixed pair_coeff terms from geometric mixing rule
quit
