LAMMPS (19 Nov 2024 - Development - patch_2Jul2021-14588-g93bfae9507)
######### 3d Lennard-Jones for polymeric system #############
######## simulting polymer brush by "grafting from" approach##
##### study the effect of iniatior density embedded in the #### #### substrate on chain length disbribution and polydispersity###

units		lj
atom_style	atomic
boundary        p p p
########## configure the simulation setup ############
read_data	resultingsilk.data nocoeff
Reading data file ...
  orthogonal box = (43.371004 11.038044 11.051881) to (158.21636 39.358798 39.344961)
  reading atoms ...
  51803 atoms
  reading velocities ...
  51803 velocities
variable        rho equal 2/(2*2^(1./6.))^3

variable        dimx equal 16*4
variable        dimy equal 8*2
variable        dimz equal 8*2

region	end block  0 2 INF INF INF INF units box
#delete_atoms	region end

#lattice	sc 0.125
#region	mybox block 0 50 0 30 0 30 units box
#create_atoms 5 box

#mass (soft segment = 1.0 / hard segment = 1.0)
variable        mass5 equal 1.0
mass            * 1.0
mass            1 0.2
mass            2 0.2
mass            3 0.1
mass            4 0.1
mass            5 0.35 #solvent mass

mass            6 0.1
mass            7 1.0
mass            8 1.0

###### randomly reset some of the bottom substrate atoms to radical atoms ####

group           patch4 type 4
8192 atoms in group patch4
group           patch1 type 1
2048 atoms in group patch1
group           patch2 type 2
2048 atoms in group patch2
group           patch3 type 3
8192 atoms in group patch3
group           patch6 type 6
16384 atoms in group patch6
group           patch5 type 5
2715 atoms in group patch5
group           patch7 type 7
6112 atoms in group patch7
group           patch8 type 8
6112 atoms in group patch8
#delete_atoms   group patch6
group           patch9 type 9
0 atoms in group patch9
delete_atoms    group patch9
Deleted 0 atoms, new total = 51803

#temperature is 0.028 before
variable	t equal 0.04
variable	tf equal 0.04
velocity	all create $t 12345
velocity	all create 0.04 12345

#c is 2.35 before for chains, 1.9 for very compact
variable        c equal 1.8
variable        s equal $c/2^(1./6.)
variable        s equal 1.8/2^(1./6.)

#variable        n equal $m*1.6

variable        u equal 1.0
variable        v equal $u/2^(1./6.)
variable        v equal 1/2^(1./6.)

variable        p equal 1.0
variable        q equal $p/2^(1./6.)
variable        q equal 1/2^(1./6.)

variable        h equal 1.0
variable        k equal $h/2^(1./6.)
variable        k equal 1/2^(1./6.)

variable        h2 equal 1.0
variable        k2 equal 1/2^(1./6.)

variable        h3 equal sqrt(2.0) # 1.414
variable        k3 equal 1.4142135623731/2^(1./6.)

variable        b equal 0.2
variable        b1 equal 0.14

variable        c3 equal 2.0
variable        s3 equal 2/2^(1./6.)

variable        c5 equal 1.6
variable        s5 equal 1.6/2^(1./6.)

variable        h4 equal 0.5
variable        k4 equal 0.5/2^(1./6.)

variable        h5 equal 0.50
variable        k5 equal 0.5/2^(1./6.)

variable        c4 equal 0.707
variable        s4 equal 0.707/2^(1./6.)

variable        c6 equal 2.5
variable        s6 equal 2.5/2^(1./6.)

variable        c7 equal 2.8
variable        s7 equal 2.8/2^(1./6.)

#pair_style     lj/cut/bump/smooth/linear 2.5
pair_style      lj/cut/bump 2.8 #cutoff 2.8
pair_coeff      * * 0.02 $v 1.0 1 0 $u
pair_coeff      * * 0.02 0.890898718140339 1.0 1 0 $u
pair_coeff      * * 0.02 0.890898718140339 1.0 1 0 1

#backbone
#in hard segment
pair_coeff      1 1 20.0 $s  1.0 1 0 1.8 #1.8 only repulsion
pair_coeff      1 1 20.0 1.60361769265261  1.0 1 0 1.8
pair_coeff      2 2 20.0 $s  1.0 1 0 1.8 #1.8 only repulsion
pair_coeff      2 2 20.0 1.60361769265261  1.0 1 0 1.8
pair_coeff      1 2 20.0 0.890898718140339 1.2 1 1.0 1.8

#connect soft segments in outside and inside hard segments
pair_coeff      2 7 20.0 0.890898718140339 1.2 1 1.0 1.8
pair_coeff      1 8 20.0 0.890898718140339 1.2 1 1.0 1.8
pair_coeff      1 7 20.0 $s  1.0 1 0 1.8 #1.8 only repulsion
pair_coeff      1 7 20.0 1.60361769265261  1.0 1 0 1.8
pair_coeff      2 8 20.0 $s  1.0 1 0 1.8 #1.8 only repulsion
pair_coeff      2 8 20.0 1.60361769265261  1.0 1 0 1.8

#soft segment (distance between soft/soft = 2.2)
pair_coeff      7 7 20.0 $s  1.0 1 0 1.8 #1.8 only repulsion
pair_coeff      7 7 20.0 1.60361769265261  1.0 1 0 1.8
pair_coeff      8 8 20.0 $s  1.0 1 0 1.8 #1.8 only repulsion
pair_coeff      8 8 20.0 1.60361769265261  1.0 1 0 1.8
pair_coeff      7 8 10.0 0.890898718140339 1.2 0.79 1.0 2.8

#intramolecular interactions in hard segments
pair_coeff      1 3 20.0 0.44544935907017 1.2 1 2.0 1.118
pair_coeff      2 3 20.0 0.44544935907017 1.2 1 2.0 1.118
pair_coeff      1 4 20.0 0.44544935907017 1.2 1 2.0 1.118
pair_coeff      2 4 20.0 0.44544935907017 1.2 1 2.0 1.118
pair_coeff      1*2 6 20.0 0.62986539372522 1.2 1 2.0 1.225

pair_coeff      3 4 20.0 0.62986539372522 1.2 1 2.0 1.225
pair_coeff      3*4 6 20.0 0.44544935907017 1.2 1 2.0 1.118

pair_coeff      6 6 5.0 0.890898718140339 1.16 1.0 2.0 1.12

#intermolecular interactions between soft and hard segments

pair_coeff      3*4 7 0.01 0.44544935907017 1.2 1 0.0 0.5
pair_coeff      3*4 8 0.01 0.44544935907017 1.2 1 0.0 0.5
pair_coeff      6 7 0.01 0.44544935907017 1.2 1 0.0 0.5
pair_coeff      6 8 0.01 0.44544935907017 1.2 1 0.0 0.5
#velocity       all set NULL 0.0 0.0
#fix            11 all setforce NULL 0.0 0.0

#turn on hydrophobic interaction of solvent particles
variable        c8 equal 2.0
variable        s8 equal 2/2^(1./6.)

variable        c9 equal 2.2
variable        s9 equal 2.2/2^(1./6.)

variable        c10 equal 0.3
variable        s10 equal 0.3/2^(1./6.)

pair_coeff      1*2 5 0.05 1.95997717990875 1.2 1 0.0 2.2

pair_coeff      3*4 5 0.01 0.267269615442102 1.2 1 0.0 0.3
pair_coeff      5 6 0.01 0.267269615442102 1.2 1 0.0 0.3

#turn on 33bond and 44bond
pair_coeff      3 3 2.5 0.890898718140339 1.1 0.415 2.0 2.8
pair_coeff      4 4 2.5 0.890898718140339 1.1 0.475 2.0 2.8

#turn on hydrophilic interaction of solvent particles
pair_coeff      5 5 0.05 1.95997717990875 1.2 1 0.0 2.2

pair_coeff      5 7 0.05 1.78179743628068 1.2 1 0.0 2.8
pair_coeff      5 8 0.05 1.78179743628068 1.2 1 0.0 2.8

pair_modify     tail no
pair_modify     shift yes
neighbor        0.5 bin
neigh_modify    every 1 delay 0 check yes

timestep	0.001
thermo		1000
thermo_style    custom step temp pe ke etotal pxx pyy pzz lx ly lz press vol

####################relaxation#####################################
fix             1 all npt temp $t $t 0.01 x 0.0 0.0 5.0 y 0.0 0.0 5.0 z 0.0 0.0 5.0
fix             1 all npt temp 0.04 $t 0.01 x 0.0 0.0 5.0 y 0.0 0.0 5.0 z 0.0 0.0 5.0
fix             1 all npt temp 0.04 0.04 0.01 x 0.0 0.0 5.0 y 0.0 0.0 5.0 z 0.0 0.0 5.0
run		100000
Generated 0 of 36 mixed pair_coeff terms from geometric mixing rule
Step          Temp          PotEng         KinEng         TotEng          Pxx            Pyy            Pzz             Lx             Ly             Lz           Press          Volume
0   0.04          -36.320216      0.059998842   -36.260217      0.018979934   -0.020565199   -0.032900255    114.84536      28.320754      28.29308      -0.011495174    92023.448
Averages over the last 51 of 101 rows, steps 50000 to 100000:
Temp PotEng KinEng TotEng Pxx Pyy Pzz Lx Ly Lz Press Volume
0.0400228 -36.328 0.0600331 -36.268 -0.000787361 -0.00623557 0.00144649 116.219 28.3133 28.2449 -0.00185881 92940.9
Loop time of 1900.54 on 1 procs for 100000 steps with 51803 atoms

unfix		1

reset_timestep  0
thermo		2000

restart         1000000 agoodstart.restart

log            log.tensile1
