LAMMPS (19 Nov 2024 - Development - patch_2Jul2021-14588-g93bfae9507)
######### 3d Lennard-Jones for polymeric system #############
######## simulting polymer brush by "grafting from" approach##
##### study the effect of iniatior density embedded in the #### #### substrate on chain length disbribution and polydispersity###

units		lj
atom_style	atomic
boundary        p p p
########## configure the simulation setup ############
#rho is 0.016 before
read_data	after.data nocoeff
Reading data file ...
  orthogonal box = (0 8 8) to (512 24 24)
  reading atoms ...
  25781 atoms
  reading velocities ...
  25781 velocities
#read_restart	agoodstart.restart
#replicate	1 2 2
variable        rho equal 2/(2*2^(1./6.))^3

variable        dimx equal 16*4
variable        dimy equal 8*2
variable        dimz equal 8*2

region	end block  0 2 INF INF INF INF units box
#delete_atoms	region end

#lattice	sc 0.125
#region	mybox block 0 50 0 30 0 30 units box
#create_atoms 5 box

#mass (soft segment = 1.0 / hard segment = 1.0)
variable        mass5 equal 1.0
mass            * 1.0
mass            1 0.2
mass            2 0.2
mass            3 0.1
mass            4 0.1
mass            5 0.35 #solvent mass

mass            6 0.1
mass            7 1.0
mass            8 1.0

###### randomly reset some of the bottom substrate atoms to radical atoms ####

group           patch4 type 4
4096 atoms in group patch4
group           patch1 type 1
1024 atoms in group patch1
group           patch2 type 2
1024 atoms in group patch2
group           patch3 type 3
4096 atoms in group patch3
group           patch6 type 6
8192 atoms in group patch6
group           patch5 type 5
1237 atoms in group patch5
group           patch7 type 7
3056 atoms in group patch7
group           patch8 type 8
3056 atoms in group patch8
#delete_atoms   group patch6
group           patch9 type 9
0 atoms in group patch9
delete_atoms    group patch9
Deleted 0 atoms, new total = 25781
#delete_atoms    group patch3
#delete_atoms    group patch4
#delete_atoms    group patch6

#temperature is 0.028 before
variable	t equal 0.04
variable	tf equal 0.04
velocity	all create $t 1234
velocity	all create 0.04 1234

#c is 2.35 before for chains, 1.9 for very compact
variable        c equal 1.8
variable        s equal $c/2^(1./6.)
variable        s equal 1.8/2^(1./6.)

#variable        n equal $m*1.6

variable        u equal 1.0
variable        v equal $u/2^(1./6.)
variable        v equal 1/2^(1./6.)

variable        p equal 1.0
variable        q equal $p/2^(1./6.)
variable        q equal 1/2^(1./6.)

variable        h equal 1.0
variable        k equal $h/2^(1./6.)
variable        k equal 1/2^(1./6.)

variable        h2 equal 1.0
variable        k2 equal 1/2^(1./6.)

variable        h3 equal sqrt(2.0) # 1.414
variable        k3 equal 1.4142135623731/2^(1./6.)

variable        b equal 0.2
variable        b1 equal 0.14

variable        c3 equal 2.0
variable        s3 equal 2/2^(1./6.)

variable        c5 equal 1.6
variable        s5 equal 1.6/2^(1./6.)

variable        h4 equal 0.5
variable        k4 equal 0.5/2^(1./6.)

variable        h5 equal 0.50
variable        k5 equal 0.5/2^(1./6.)

variable        c4 equal 0.707
variable        s4 equal 0.707/2^(1./6.)

variable        c6 equal 2.5
variable        s6 equal 2.5/2^(1./6.)

variable        c7 equal 2.8
variable        s7 equal 2.8/2^(1./6.)

#pair_style     lj/cut/bump/smooth/linear 2.5
pair_style      lj/cut/bump 2.8 #cutoff 2.8
pair_coeff      * * 0.02 $v 1.0 1 0 $u
pair_coeff      * * 0.02 0.890898718140339 1.0 1 0 $u
pair_coeff      * * 0.02 0.890898718140339 1.0 1 0 1

#backbone
#in hard segment
pair_coeff      1 1 20.0 $s  1.0 1 0 1.8 #1.8 only repulsion
pair_coeff      1 1 20.0 1.60361769265261  1.0 1 0 1.8
pair_coeff      2 2 20.0 $s  1.0 1 0 1.8 #1.8 only repulsion
pair_coeff      2 2 20.0 1.60361769265261  1.0 1 0 1.8
pair_coeff      1 2 20.0 0.890898718140339 1.2 1 1.0 1.8

#connect soft segments in outside and inside hard segments
pair_coeff      2 7 20.0 0.890898718140339 1.2 1 1.0 1.8
pair_coeff      1 8 20.0 0.890898718140339 1.2 1 1.0 1.8
pair_coeff      1 7 20.0 $s  1.0 1 0 1.8 #1.8 only repulsion
pair_coeff      1 7 20.0 1.60361769265261  1.0 1 0 1.8
pair_coeff      2 8 20.0 $s  1.0 1 0 1.8 #1.8 only repulsion
pair_coeff      2 8 20.0 1.60361769265261  1.0 1 0 1.8

#soft segment (distance between soft/soft = 2.2)
pair_coeff      7 7 20.0 $s  1.0 1 0 1.8 #1.8 only repulsion
pair_coeff      7 7 20.0 1.60361769265261  1.0 1 0 1.8
pair_coeff      8 8 20.0 $s  1.0 1 0 1.8 #1.8 only repulsion
pair_coeff      8 8 20.0 1.60361769265261  1.0 1 0 1.8
pair_coeff      7 8 20.0 0.890898718140339 1.2 1 1.0 1.8

#intramolecular interactions in hard segments
pair_coeff      1 3 20.0 0.44544935907017 1.2 1 2.0 1.118
pair_coeff      2 3 20.0 0.44544935907017 1.2 1 2.0 1.118
pair_coeff      1 4 20.0 0.44544935907017 1.2 1 2.0 1.118
pair_coeff      2 4 20.0 0.44544935907017 1.2 1 2.0 1.118
pair_coeff      1*2 6 20.0 0.62986539372522 1.2 1 2.0 1.225

pair_coeff      3 4 20.0 0.62986539372522 1.2 1 2.0 1.225
pair_coeff      3*4 6 20.0 0.44544935907017 1.2 1 2.0 1.118

pair_coeff      6 6 5.0 0.890898718140339 1.16 1.0 2.0 1.12

#intermolecular interactions between soft and hard segments

pair_coeff      3*4 7 0.01 0.44544935907017 1.2 1 0.0 0.5
pair_coeff      3*4 8 0.01 0.44544935907017 1.2 1 0.0 0.5
pair_coeff      6 7 0.01 0.44544935907017 1.2 1 0.0 0.5
pair_coeff      6 8 0.01 0.44544935907017 1.2 1 0.0 0.5

#turn on hydrophobic interaction of solvent particles
variable        c8 equal 2.0
variable        s8 equal 2/2^(1./6.)

variable        c9 equal 2.2
variable        s9 equal 2.2/2^(1./6.)

variable        c10 equal 0.3
variable        s10 equal 0.3/2^(1./6.)

pair_coeff      1*2 5 0.05 1.95997717990875 1.2 1 0.0 2.2

pair_coeff      3*4 5 0.01 0.267269615442102 1.2 1 0.0 0.3
pair_coeff      5 6 0.01 0.267269615442102 1.2 1 0.0 0.3

#turn on 33bond and 44bond
pair_coeff      3 3 2.5 0.890898718140339 1.1 0.415 2.0 2.8
pair_coeff      4 4 2.5 0.890898718140339 1.1 0.475 2.0 2.8

#solvent behavior
pair_coeff      5 5 0.05 1.95997717990875 1.2 1 0.0 2.2

pair_coeff      5 7 0.05 1.78179743628068 1.2 1 0.0 2.8
pair_coeff      5 8 0.05 1.78179743628068 1.2 1 0.0 2.8

pair_modify     tail no
pair_modify     shift yes
neighbor        0.5 bin
neigh_modify    every 1 delay 0 check yes
#neigh_modify    page 100000000000
#neigh_modify    one  10000000000

timestep        0.001
thermo          2000
thermo_style    custom step temp pe ke etotal pxx pyy pzz lx ly lz press vol

#turn on 33bond and 44bond

#turn on hydrophilic interaction of solvent particles
#pair_coeff      5 5 0.05 $s 1.2 1 0.0 2.8 # 1.8 attraction

#restart         455000 agoodstart.restart

dump            1 all custom 100000 lata4olivia_assembly id type x y z fx fy fz vx vy vz
################relaxation (P drop)######################
#minimize        1e-5 1e-6 100000 100000
fix		1 all nvt temp 0.04 0.04 0.01
run		200000 #pre-assemble
Generated 0 of 36 mixed pair_coeff terms from geometric mixing rule
Step          Temp          PotEng         KinEng         TotEng          Pxx            Pyy            Pzz             Lx             Ly             Lz           Press          Volume
0   0.04          -34.939043      0.059997673   -34.879045      4.9761786     -1.1824639     -0.56985578     512            16             16             1.0746196      131072
Averages over the last 51 of 101 rows, steps 100000 to 200000:
Temp PotEng KinEng TotEng Pxx Pyy Pzz Lx Ly Lz Press Volume
0.0400429 -38.4778 0.060062 -38.4178 -0.0409046 -0.000832674 -0.00105704 512 16 16 -0.0142648 131072
Loop time of 1499.29 on 1 procs for 200000 steps with 25781 atoms

unfix           1

################P change into 0.001######################
variable        pressurenow equal press
fix             1 all npt temp 0.04 0.04 0.01 x 0.0 0.0 5.0 y -0.0203455020987797 0.001 10 z -0.0203455020987797 0.001 10

run             100000
Generated 0 of 36 mixed pair_coeff terms from geometric mixing rule
Step          Temp          PotEng         KinEng         TotEng          Pxx            Pyy            Pzz             Lx             Ly             Lz           Press          Volume
200000   0.039801428   -38.480478      0.059699827   -38.420778     -0.047971205   -0.004829544   -0.0082357574   512            16             16            -0.020345502    131072
Averages over the last 26 of 51 rows, steps 250000 to 300000:
Temp PotEng KinEng TotEng Pxx Pyy Pzz Lx Ly Lz Press Volume
0.0400312 -38.4845 0.0600445 -38.4244 -0.000420265 -0.000397686 -0.000283739 473.297 21.483 21.4141 -0.00036723 217798
Loop time of 835.17 on 1 procs for 100000 steps with 25781 atoms

unfix           1

################the first compression at low P (P = 0.001) and no dehydration##############
fix             1 all npt temp 0.04 0.04 0.01 x 0.0 0.0 5.0 y 0.001 0.001 10 z 0.001 0.001 10

#variable a loop 400
#label loop
#                group g5 type 5 5

#variable        n5 equal count(g5)
#variable        rmn equal 1789 #dehydration

#                group g9 type 9 9
#                delete_atoms group g9
#                group g5 delete
#                group g9 delete
run             2000000
Generated 0 of 36 mixed pair_coeff terms from geometric mixing rule
Step          Temp          PotEng         KinEng         TotEng          Pxx            Pyy            Pzz             Lx             Ly             Lz           Press          Volume
300000   0.040392936   -38.485338      0.060587055   -38.424751     -0.022560782   -0.011736576   -0.0042484347   459.28434      22.195055      22.105756     -0.012848597    225342.57
Averages over the last 501 of 1001 rows, steps 1300000 to 2300000:
Temp PotEng KinEng TotEng Pxx Pyy Pzz Lx Ly Lz Press Volume
0.0400195 -38.5218 0.0600269 -38.4618 -0.00412136 0.000850399 0.000856876 427.56 10.7748 10.7468 -0.000804695 49509.3
Loop time of 21234.1 on 1 procs for 2000000 steps with 25781 atoms

#next a
#jump s_hydro2 loop
unfix           1
############turn on Hbond in soft segments###################
pair_coeff      7 8 10.0 0.890898718140339 1.2 0.79 1.0 2.8

#pair_coeff      7 7 0.25 $s  1.0 1 0 2.8 #1.8 only repulsion
#pair_coeff      8 8 0.25 $s  1.0 1 0 2.8 #1.8 only repulsion

pair_modify     tail no
pair_modify     shift yes
neighbor        0.5 bin
neigh_modify    every 1 delay 0 check yes

#################P change into 1######################
variable        pressurenow equal press
fix             1 all npt temp 0.04 0.04 0.01 x 0.0 0.0 5.0 y 0.00677525554394155 1 10 z 0.00677525554394155 1 10
run             100000
Generated 0 of 36 mixed pair_coeff terms from geometric mixing rule
Step          Temp          PotEng         KinEng         TotEng          Pxx            Pyy            Pzz             Lx             Ly             Lz           Press          Volume
2300000   0.040026793   -36.245763      0.06003786    -36.185725      0.32118856     0.82011773     0.79846971     424.68844      10.813991      10.750316      0.646592       49371.656
Averages over the last 26 of 51 rows, steps 2350000 to 2400000:
Temp PotEng KinEng TotEng Pxx Pyy Pzz Lx Ly Lz Press Volume
0.03999 -36.5272 0.0599827 -36.4672 -0.419118 0.708186 0.717043 498.024 8.56738 8.62965 0.33537 36819.1
Loop time of 1039.85 on 1 procs for 100000 steps with 25781 atoms

unfix           1
################the second compression at high P (P = 1)##############
fix             1 all npt temp 0.04 0.04 0.01 x 0.0 0.0 5.0 y 1 1 10 z 1 1 10
run		300000
Generated 0 of 36 mixed pair_coeff terms from geometric mixing rule
Step          Temp          PotEng         KinEng         TotEng          Pxx            Pyy            Pzz             Lx             Ly             Lz           Press          Volume
2400000   0.040012169   -36.506507      0.060015926   -36.446491     -0.65203103     0.87657693     0.93250977     502.54585      8.4720902      8.4590626      0.38568523     36015.421
Averages over the last 76 of 151 rows, steps 2550000 to 2700000:
Temp PotEng KinEng TotEng Pxx Pyy Pzz Lx Ly Lz Press Volume
0.0400116 -36.5158 0.0600151 -36.4557 0.0104429 0.998092 1.01065 492.036 8.45624 8.45746 0.673061 35189.6
Loop time of 3051.42 on 1 procs for 300000 steps with 25781 atoms

unfix           1

###############decompression##########################################
variable       finalpress equal press
fix             1 all npt temp 0.04 0.04 0.01 iso 0.673526302089337 0.0 10
run            200000
Generated 0 of 36 mixed pair_coeff terms from geometric mixing rule
Step          Temp          PotEng         KinEng         TotEng          Pxx            Pyy            Pzz             Lx             Ly             Lz           Press          Volume
2700000   0.04003172    -36.515993      0.060045251   -36.455948      0.016244441    0.96441659     1.0399179      491.86856      8.4562977      8.4577137      0.6735263      35178.904
Averages over the last 51 of 101 rows, steps 2800000 to 2900000:
Temp PotEng KinEng TotEng Pxx Pyy Pzz Lx Ly Lz Press Volume
0.0400002 -36.54 0.0599979 -36.48 -0.450905 0.478435 0.473879 499.882 8.59407 8.59551 0.167136 36928.5
Loop time of 1965.63 on 1 procs for 200000 steps with 25781 atoms

unfix          1

###############maintain pressure_relaxation############################
fix             1 all npt temp 0.04 0.04 0.01 x 0.0 0.0 5.0 y 0.0 0.0 5.0 z 0.0 0.0 5.0
run            200000
Generated 0 of 36 mixed pair_coeff terms from geometric mixing rule
Step          Temp          PotEng         KinEng         TotEng          Pxx            Pyy            Pzz             Lx             Ly             Lz           Press          Volume
2900000   0.040181413   -36.544576      0.060269781   -36.484307     -0.66275268     0.32967896     0.31850804     504.0182       8.6651765      8.6666276     -0.0048552292   37850.687
Averages over the last 51 of 101 rows, steps 3000000 to 3100000:
Temp PotEng KinEng TotEng Pxx Pyy Pzz Lx Ly Lz Press Volume
0.0400005 -36.5822 0.0599984 -36.5222 0.0036346 0.00495286 -0.00146951 470.398 9.72726 9.09928 0.00237265 41635.1
Loop time of 1904.61 on 1 procs for 200000 steps with 25781 atoms

unfix          1

write_data    resultingsilk.data
System init for write_data ...
Generated 0 of 36 mixed pair_coeff terms from geometric mixing rule
